ss-84
                    3D
 Schrodinger Suite 2023-1.
177182  0  0  1  0            999 V2000
    4.2409    5.0861   -0.3180 C   0  0  2  0  0  0
    3.2883    3.8985   -0.5772 C   0  0  2  0  0  0
    2.3342    3.7257    0.6264 C   0  0  2  0  0  0
    3.1369    3.4355    1.9249 C   0  0  1  0  0  0
    4.4646    3.9136    1.8719 O   0  0  0  0  0  0
    4.7046    5.1472    1.1741 C   0  0  2  0  0  0
    1.4013    2.6683    0.4123 O   0  0  0  0  0  0
    4.0171    2.7123   -0.8477 O   0  0  0  0  0  0
    3.6421    6.2887   -0.7766 O   0  0  0  0  0  0
    4.1786    6.3431    2.0019 C   0  0  0  0  0  0
   -1.9851    2.8244   -2.0987 C   0  0  1  0  0  0
   -2.0479    2.0777   -0.7366 C   0  0  2  0  0  0
   -0.6368    1.6638   -0.2735 C   0  0  2  0  0  0
    0.1734    2.9705   -0.1705 C   0  0  2  0  0  0
    0.3077    3.5232   -1.4575 O   0  0  0  0  0  0
   -0.9327    3.9686   -2.0415 C   0  0  2  0  0  0
   -0.1593    0.6796   -1.2004 O   0  0  0  0  0  0
   -2.9297    0.9553   -0.6931 O   0  0  0  0  0  0
   -1.6870    1.9633   -3.1841 O   0  0  0  0  0  0
   -1.4677    5.2625   -1.3915 C   0  0  0  0  0  0
    0.4605   -1.9021    0.1550 C   0  0  2  0  0  0
    0.8926   -2.8079   -1.0191 C   0  0  2  0  0  0
    0.6804   -2.0675   -2.3533 C   0  0  2  0  0  0
    1.4322   -0.7184   -2.2936 C   0  0  2  0  0  0
    1.0969    0.0924   -1.0298 C   0  0  2  0  0  0
    1.1932   -0.6715    0.1485 O   0  0  0  0  0  0
    0.7056   -2.5652    1.5205 C   0  0  0  0  0  0
    0.1761   -4.0491   -0.9886 O   0  0  0  0  0  0
   -0.7213   -1.8896   -2.6042 O   0  0  0  0  0  0
    1.2114    0.0983   -3.4424 O   0  0  0  0  0  0
    2.5031    3.9545    3.0639 O   0  0  0  0  0  0
    1.1472    3.6203    3.3813 C   0  0  1  0  0  0
    0.9378    2.1005    3.6111 C   0  0  0  0  0  0
    0.7591    4.4899    4.6024 C   0  0  0  0  0  0
    1.0136    6.0053    4.4378 C   0  0  0  0  0  0
    0.2655    6.6525    3.2547 C   0  0  0  0  0  0
    0.5086    8.1670    3.1450 C   0  0  0  0  0  0
   -0.5052    1.7307    4.0170 C   0  0  0  0  0  0
   -0.8448    0.2395    3.8473 C   0  0  0  0  0  0
   -2.2246   -0.1194    4.4344 C   0  0  0  0  0  0
   -2.7151   -1.5511    4.1242 C   0  0  0  0  0  0
   -2.9556   -1.8785    2.6335 C   0  0  0  0  0  0
   -3.9065   -0.9056    1.9125 C   0  0  0  0  0  0
   -4.2082   -1.3105    0.4550 C   0  0  0  0  0  0
   -5.0008   -0.2438   -0.3397 C   0  0  0  0  0  0
   -4.2715    1.0914   -0.5637 C   0  0  0  0  0  0
   -4.8929    2.1544   -0.5917 O   0  0  0  0  0  0
   -0.2009    8.7969    1.9386 C   0  0  0  0  0  0
    2.9845   -7.0584   -1.9053 C   0  0  2  0  0  0
    2.1246   -7.2575   -0.6299 C   0  0  1  0  0  0
    1.5415   -5.8956   -0.1758 C   0  0  2  0  0  0
    0.8281   -5.2306   -1.3774 C   0  0  2  0  0  0
    1.7270   -5.0435   -2.4452 O   0  0  0  0  0  0
    2.2162   -6.2690   -3.0036 C   0  0  1  0  0  0
    2.5588   -5.1001    0.4048 O   0  0  0  0  0  0
    1.0752   -8.1958   -0.7964 O   0  0  0  0  0  0
    3.7293   -8.2091   -2.3292 O   0  0  0  0  0  0
    3.1024   -5.8936   -4.2016 C   0  0  0  0  0  0
   -3.3993   -1.2291   -3.5495 C   0  0  1  0  0  0
   -3.9946   -2.6450   -3.7691 C   0  0  1  0  0  0
   -2.9491   -3.7342   -3.4531 C   0  0  1  0  0  0
   -1.6569   -3.4233   -4.2388 C   0  0  1  0  0  0
   -1.1546   -1.9964   -3.9385 C   0  0  1  0  0  0
   -2.1498   -1.0469   -4.2348 O   0  0  0  0  0  0
   -4.3535   -0.1188   -4.0295 C   0  0  0  0  0  0
   -5.2018   -2.8436   -3.0509 O   0  0  0  0  0  0
   -2.7295   -3.8941   -2.0577 O   0  0  0  0  0  0
   -0.6605   -4.4169   -4.1176 O   0  0  0  0  0  0
    1.9925    0.0464   -4.5395 C   0  0  0  0  0  0
    2.9500   -0.7130   -4.7070 O   0  0  0  0  0  0
    1.5301    1.0618   -5.6037 C   0  0  2  0  0  0
    2.1725    0.8024   -6.9863 C   0  0  0  0  0  0
    1.7511    2.5172   -5.1099 C   0  0  0  0  0  0
    1.0369    3.5840   -5.9533 C   0  0  0  0  0  0
    3.1965   -9.2619   -3.0009 C   0  0  0  0  0  0
    4.2637  -10.3178   -3.3624 C   0  0  2  0  0  0
    5.0501   -9.9848   -4.6667 C   0  0  2  0  0  0
    2.0102   -9.4024   -3.3057 O   0  0  0  0  0  0
    3.6805  -11.7496   -3.3888 C   0  0  0  0  0  0
    5.7876   -8.7846   -4.5198 O   0  0  0  0  0  0
    4.1982   -9.8793   -5.9484 C   0  0  0  0  0  0
    5.1197    4.9756   -0.9563 H   0  0  0  0  0  0
    2.7319    4.0843   -1.4963 H   0  0  0  0  0  0
    1.7846    4.6570    0.7812 H   0  0  0  0  0  0
    3.3080    2.3672    2.0650 H   0  0  0  0  0  0
    5.7902    5.2549    1.1632 H   0  0  0  0  0  0
    3.4256    1.9632   -0.7435 H   0  0  0  0  0  0
    2.8248    6.4278   -0.2929 H   0  0  0  0  0  0
    4.5000    7.2936    1.5753 H   0  0  0  0  0  0
    4.5537    6.3050    3.0250 H   0  0  0  0  0  0
    3.0905    6.3554    2.0478 H   0  0  0  0  0  0
   -2.9657    3.2403   -2.3331 H   0  0  0  0  0  0
   -2.4316    2.7752    0.0114 H   0  0  0  0  0  0
   -0.6855    1.2011    0.7134 H   0  0  0  0  0  0
   -0.3106    3.7165    0.4606 H   0  0  0  0  0  0
   -0.6798    4.2504   -3.0655 H   0  0  0  0  0  0
   -1.8553    2.4315   -4.0047 H   0  0  0  0  0  0
   -2.3136    5.6583   -1.9542 H   0  0  0  0  0  0
   -0.6983    6.0350   -1.3719 H   0  0  0  0  0  0
   -1.8106    5.1076   -0.3690 H   0  0  0  0  0  0
   -0.6044   -1.6751    0.0696 H   0  0  0  0  0  0
    1.9588   -3.0099   -0.9046 H   0  0  0  0  0  0
    1.1084   -2.6734   -3.1534 H   0  0  0  0  0  0
    2.5027   -0.9246   -2.2295 H   0  0  0  0  0  0
    1.8597    0.8540   -0.9042 H   0  0  0  0  0  0
    0.1474   -3.4966    1.6189 H   0  0  0  0  0  0
    0.3987   -1.9150    2.3373 H   0  0  0  0  0  0
    1.7622   -2.7872    1.6694 H   0  0  0  0  0  0
    0.4997    3.9243    2.5624 H   0  0  0  0  0  0
    1.1869    1.5618    2.6971 H   0  0  0  0  0  0
    1.6341    1.7395    4.3692 H   0  0  0  0  0  0
   -0.2975    4.3497    4.8321 H   0  0  0  0  0  0
    1.3045    4.1381    5.4794 H   0  0  0  0  0  0
    0.7194    6.5063    5.3612 H   0  0  0  0  0  0
    2.0845    6.1857    4.3365 H   0  0  0  0  0  0
    0.5764    6.1835    2.3210 H   0  0  0  0  0  0
   -0.8042    6.4610    3.3526 H   0  0  0  0  0  0
    0.1725    8.6604    4.0580 H   0  0  0  0  0  0
    1.5794    8.3616    3.0683 H   0  0  0  0  0  0
   -0.6695    2.0233    5.0550 H   0  0  0  0  0  0
   -1.2111    2.3118    3.4209 H   0  0  0  0  0  0
   -0.8202    0.0021    2.7843 H   0  0  0  0  0  0
   -0.0786   -0.3751    4.3220 H   0  0  0  0  0  0
   -2.1839    0.0051    5.5174 H   0  0  0  0  0  0
   -2.9697    0.6005    4.0941 H   0  0  0  0  0  0
   -2.0031   -2.2692    4.5332 H   0  0  0  0  0  0
   -3.6451   -1.7204    4.6689 H   0  0  0  0  0  0
   -2.0039   -1.9033    2.1055 H   0  0  0  0  0  0
   -3.3558   -2.8909    2.5615 H   0  0  0  0  0  0
   -4.8434   -0.8261    2.4659 H   0  0  0  0  0  0
   -3.4598    0.0884    1.9238 H   0  0  0  0  0  0
   -3.2761   -1.5410   -0.0642 H   0  0  0  0  0  0
   -4.7746   -2.2426    0.4516 H   0  0  0  0  0  0
   -5.2759   -0.6478   -1.3123 H   0  0  0  0  0  0
   -5.9389   -0.0354    0.1757 H   0  0  0  0  0  0
   -0.0098    9.8693    1.8911 H   0  0  0  0  0  0
   -1.2809    8.6556    1.9956 H   0  0  0  0  0  0
    0.1455    8.3577    1.0023 H   0  0  0  0  0  0
    3.8024   -6.4036   -1.6020 H   0  0  0  0  0  0
    2.7424   -7.6655    0.1718 H   0  0  0  0  0  0
    0.8014   -6.0506    0.6114 H   0  0  0  0  0  0
    0.0324   -5.8616   -1.7798 H   0  0  0  0  0  0
    1.3722   -6.8532   -3.3748 H   0  0  0  0  0  0
    2.1526   -4.3161    0.7816 H   0  0  0  0  0  0
    1.3944   -8.9162   -1.3463 H   0  0  0  0  0  0
    3.4800   -6.7787   -4.7133 H   0  0  0  0  0  0
    3.9606   -5.2973   -3.8897 H   0  0  0  0  0  0
    2.5411   -5.3096   -4.9319 H   0  0  0  0  0  0
   -3.2127   -1.0861   -2.4849 H   0  0  0  0  0  0
   -4.2690   -2.7369   -4.8215 H   0  0  0  0  0  0
   -3.3509   -4.6927   -3.7861 H   0  0  0  0  0  0
   -1.9009   -3.4316   -5.3025 H   0  0  0  0  0  0
   -0.3643   -1.6882   -4.6243 H   0  0  0  0  0  0
   -5.3369   -0.1992   -3.5676 H   0  0  0  0  0  0
   -4.4922   -0.1585   -5.1102 H   0  0  0  0  0  0
   -3.9692    0.8691   -3.7845 H   0  0  0  0  0  0
   -5.8809   -2.2835   -3.4335 H   0  0  0  0  0  0
   -1.8973   -4.3539   -1.9275 H   0  0  0  0  0  0
   -0.4855   -4.5615   -3.1849 H   0  0  0  0  0  0
    0.4556    0.9086   -5.7146 H   0  0  0  0  0  0
    1.9885   -0.2186   -7.3246 H   0  0  0  0  0  0
    3.2526    0.9554   -6.9657 H   0  0  0  0  0  0
    1.7597    1.4614   -7.7497 H   0  0  0  0  0  0
    1.4023    2.6276   -4.0809 H   0  0  0  0  0  0
    2.8192    2.7391   -5.0768 H   0  0  0  0  0  0
    1.1727    4.5741   -5.5174 H   0  0  0  0  0  0
   -0.0352    3.3923   -6.0054 H   0  0  0  0  0  0
    1.4241    3.6222   -6.9713 H   0  0  0  0  0  0
    4.9901  -10.3091   -2.5482 H   0  0  0  0  0  0
    5.7960  -10.7662   -4.8190 H   0  0  0  0  0  0
    3.2650  -12.0246   -2.4182 H   0  0  0  0  0  0
    4.4511  -12.4837   -3.6260 H   0  0  0  0  0  0
    2.8852  -11.8588   -4.1275 H   0  0  0  0  0  0
    6.2662   -8.6175   -5.3350 H   0  0  0  0  0  0
    3.6582  -10.8056   -6.1431 H   0  0  0  0  0  0
    4.8203   -9.6803   -6.8218 H   0  0  0  0  0  0
    3.4614   -9.0779   -5.8824 H   0  0  0  0  0  0
  1  2  1  0  0  0
  1  6  1  0  0  0
  1  9  1  0  0  0
  1 82  1  0  0  0
  2  3  1  0  0  0
  2  8  1  0  0  0
  2 83  1  0  0  0
  3  4  1  0  0  0
  3  7  1  0  0  0
  3 84  1  0  0  0
  4  5  1  0  0  0
  4 31  1  0  0  0
  4 85  1  0  0  0
  5  6  1  0  0  0
  6 10  1  0  0  0
  6 86  1  0  0  0
  7 14  1  0  0  0
  8 87  1  0  0  0
  9 88  1  0  0  0
 10 89  1  0  0  0
 10 90  1  0  0  0
 10 91  1  0  0  0
 11 12  1  0  0  0
 11 16  1  0  0  0
 11 19  1  0  0  0
 11 92  1  0  0  0
 12 13  1  0  0  0
 12 18  1  0  0  0
 12 93  1  0  0  0
 13 14  1  0  0  0
 13 17  1  0  0  0
 13 94  1  0  0  0
 14 15  1  0  0  0
 14 95  1  0  0  0
 15 16  1  0  0  0
 16 20  1  0  0  0
 16 96  1  0  0  0
 17 25  1  0  0  0
 18 46  1  0  0  0
 19 97  1  0  0  0
 20 98  1  0  0  0
 20 99  1  0  0  0
 20100  1  0  0  0
 21 22  1  0  0  0
 21 26  1  0  0  0
 21 27  1  0  0  0
 21101  1  0  0  0
 22 23  1  0  0  0
 22 28  1  0  0  0
 22102  1  0  0  0
 23 24  1  0  0  0
 23 29  1  0  0  0
 23103  1  0  0  0
 24 25  1  0  0  0
 24 30  1  0  0  0
 24104  1  0  0  0
 25 26  1  0  0  0
 25105  1  0  0  0
 27106  1  0  0  0
 27107  1  0  0  0
 27108  1  0  0  0
 28 52  1  0  0  0
 29 63  1  0  0  0
 30 69  1  0  0  0
 31 32  1  0  0  0
 32 33  1  0  0  0
 32 34  1  0  0  0
 32109  1  0  0  0
 33 38  1  0  0  0
 33110  1  0  0  0
 33111  1  0  0  0
 34 35  1  0  0  0
 34112  1  0  0  0
 34113  1  0  0  0
 35 36  1  0  0  0
 35114  1  0  0  0
 35115  1  0  0  0
 36 37  1  0  0  0
 36116  1  0  0  0
 36117  1  0  0  0
 37 48  1  0  0  0
 37118  1  0  0  0
 37119  1  0  0  0
 38 39  1  0  0  0
 38120  1  0  0  0
 38121  1  0  0  0
 39 40  1  0  0  0
 39122  1  0  0  0
 39123  1  0  0  0
 40 41  1  0  0  0
 40124  1  0  0  0
 40125  1  0  0  0
 41 42  1  0  0  0
 41126  1  0  0  0
 41127  1  0  0  0
 42 43  1  0  0  0
 42128  1  0  0  0
 42129  1  0  0  0
 43 44  1  0  0  0
 43130  1  0  0  0
 43131  1  0  0  0
 44 45  1  0  0  0
 44132  1  0  0  0
 44133  1  0  0  0
 45 46  1  0  0  0
 45134  1  0  0  0
 45135  1  0  0  0
 46 47  2  0  0  0
 48136  1  0  0  0
 48137  1  0  0  0
 48138  1  0  0  0
 49 50  1  0  0  0
 49 54  1  0  0  0
 49 57  1  0  0  0
 49139  1  0  0  0
 50 51  1  0  0  0
 50 56  1  0  0  0
 50140  1  0  0  0
 51 52  1  0  0  0
 51 55  1  0  0  0
 51141  1  0  0  0
 52 53  1  0  0  0
 52142  1  0  0  0
 53 54  1  0  0  0
 54 58  1  0  0  0
 54143  1  0  0  0
 55144  1  0  0  0
 56145  1  0  0  0
 57 75  1  0  0  0
 58146  1  0  0  0
 58147  1  0  0  0
 58148  1  0  0  0
 59 60  1  0  0  0
 59 64  1  0  0  0
 59 65  1  0  0  0
 59149  1  0  0  0
 60 61  1  0  0  0
 60 66  1  0  0  0
 60150  1  0  0  0
 61 62  1  0  0  0
 61 67  1  0  0  0
 61151  1  0  0  0
 62 63  1  0  0  0
 62 68  1  0  0  0
 62152  1  0  0  0
 63 64  1  0  0  0
 63153  1  0  0  0
 65154  1  0  0  0
 65155  1  0  0  0
 65156  1  0  0  0
 66157  1  0  0  0
 67158  1  0  0  0
 68159  1  0  0  0
 69 70  2  0  0  0
 69 71  1  0  0  0
 71 72  1  0  0  0
 71 73  1  0  0  0
 71160  1  0  0  0
 72161  1  0  0  0
 72162  1  0  0  0
 72163  1  0  0  0
 73 74  1  0  0  0
 73164  1  0  0  0
 73165  1  0  0  0
 74166  1  0  0  0
 74167  1  0  0  0
 74168  1  0  0  0
 75 76  1  0  0  0
 75 78  2  0  0  0
 76 77  1  0  0  0
 76 79  1  0  0  0
 76169  1  0  0  0
 77 80  1  0  0  0
 77 81  1  0  0  0
 77170  1  0  0  0
 79171  1  0  0  0
 79172  1  0  0  0
 79173  1  0  0  0
 80174  1  0  0  0
 81175  1  0  0  0
 81176  1  0  0  0
 81177  1  0  0  0
M  END
> <s_m_entry_id>
972

> <s_m_entry_name>
ss-84.1

> <s_m_Source_Path>
C:\Users\simm\Documents\Schrodinger\ligprep_ss

> <s_m_Source_File>
ligprep_ss-out.sdf

> <i_m_Source_File_Index>
1

> <i_lp_mmshare_version>
61128

> <s_epik_input>
W09IXVtDQEBIXTFbQ0BASF0oW09IXSlbQ0BASF0oW0NIM10pT1tDQEhdKFtDQEBIXTEyKU9bQ0BIXShbQ0gyXVtDSDJdW0NIMl1bQ0gyXVtDSDNdKVtDSDJdW0NIMl1bQ0gyXVtDSDJdW0NIMl1bQ0gyXVtDSDJdW0NIMl1bQ0gyXUMoPU8pT1tDQEBIXTNbQ0BIXShbT0hdKVtDQEBIXShbQ0gzXSlPW0NASF0oTzIpW0NAQEhdM09bQ0BASF0oTzQpW0NASF0oT0MoPU8pW0NASF0oW0NIM10pW0NIMl1bQ0gzXSlbQ0BIXShPW0NASF0oTzUpW0NAQEhdKFtPSF0pW0NAQEhdKFtPSF0pW0NAQEhdKFtPSF0pW0NAQEhdNVtDSDNdKVtDQEBIXShbQ0BIXTRbQ0gzXSlPW0NAQEhdKE9bQ0BIXTZbQ0gzXSlbQ0BIXShbT0hdKVtDQEBIXShbT0hdKVtDQEhdNk9DKD1PKVtDQEBIXShbQ0gzXSlbQ0BIXShbT0hdKVtDSDNd

> <s_epik_cmdline>
J2VwaWtfcHl0aG9uJywgJy1waCcsICc3LjAnLCAnLXRuJywgJzgnLCAnLW1hJywgJzUwMCcsICctaW1hZScsICc8aW5maWxlLm1hZT4nLCAnLW9tYWUnLCAnPG91dGZpbGUubWFlPic=

> <r_epik_Ionization_Penalty>
  0.0000

> <r_epik_Ionization_Penalty_Charging>
  0.0000

> <r_epik_Ionization_Penalty_Neutral>
  0.0000

> <r_epik_State_Penalty>
  0.0000

> <r_epik_Charging_Adjusted_Penalty>
0

> <i_epik_Tot_Q>
0

> <i_epik_Tot_abs_Q>
0

> <s_epik_Chemistry_Notes>
This compound has an ester and may undergo hydrolysis at high or low pH. This compound contains an acetal/aminal-like group ( X-CH(R)-Y where X, Y are N, S, or O) that may be acid/base labile, releasing an aldehyde.

> <s_lp_Force_Field>
S-OPLS

> <r_lp_Energy>
51.057

> <b_lp_Chiralities_Consistent>
1

> <s_lp_Variant>
ss-84-1

> <r_lp_tautomer_probability>
1

> <s_m_source_file>
ligprep_ss.maegz

> <i_m_source_file_index>
37

> <i_f3d_flags>
0

> <s_m_job_name>
ligprep_ss

> <s_m_subgroup_title>
ligprep_ss-out

> <s_m_subgroupid>
ligprep_ss-out

> <b_m_subgroup_collapsed>
0

$$$$
